Circuit: * D:\electro-robot\LTSpice\Porte_logique_NON.asc

Direct Newton iteration for .op point succeeded.

Date: Fri Jan 17 21:41:24 2025
Total elapsed time: 0.081 seconds.

tnom = 27
temp = 27
method = modified trap
totiter = 5304
traniter = 5299
tranpoints = 2026
accept = 1505
rejected = 521
matrix size = 9
fillins = 0
solver = Normal
Matrix Compiler1: 456 bytes object code size  0.2/0.1/[0.1]
Matrix Compiler2: 667 bytes object code size  0.1/0.2/[0.1]

